<?xml version="1.0" encoding="UTF-8"?>

<!-- generated on 2025-08-25 21:21:19 by Eclipse SUMO netedit Version 1.23.1
-->

<routes xmlns:xsi="http://www.w3.org/2001/XMLSchema-instance" xsi:noNamespaceSchemaLocation="http://sumo.dlr.de/xsd/routes_file.xsd">
    <route id="south_north_route" edges="Edge_South_to_Middle Edge_South_to_Intersection Edge_North_from_Intersection Edge_North_from_Middle"/>
    <route id="east_west_route" edges="Edge_East_to_Middle Edge_East_to_Intersection Edge_West_from_Intersection Edge_West_from_Middle"/>
    <vType id="vut" vClass="passenger" maxSpeed="60" speedFactor="0.9" speedDev="0.2" sigma="0.5" color="0,0,255"/>
    <vType id="manual" vClass="passenger" maxSpeed="60" speedFactor="0.9" speedDev="0.2" sigma="0.5" />
    <vehicle id="v_vut" type="vut" route="south_north_route" depart="2" />

</routes>
